35
Coordinates from ORCA-job orca_opt
  C   -1.87837396520868     -0.63093989740039     -1.87720649465564
  C   -2.06781197619781     -1.38870825040480     -0.57352604623800
  C   -2.03024593478291     -0.47918694512183      0.74474192288661
  C   -3.18506001573691      0.43173634500011      0.67844299557403
  C   -3.02806380723858      1.77699324462199      0.54172176886879
  C   -1.70948846175285      2.30454248889736      0.50917772430020
  C   -0.56934022824821      1.51493916156314      0.66007187093867
  C   -0.70005998019518      0.14730444890914      0.86031329435576
  C   0.47964236036443     -0.70638038086821      1.22949158364047
  C   0.69515510290921     -0.55760367328421      2.75023326717433
  C   1.69929048802254     -0.37090651722592      0.38596455006292
  C   2.73334252627342      0.44414604432888      0.85545562851852
  C   3.81701477571310      0.75244456040468      0.03169012475746
  C   3.88092599512017      0.24598279999113     -1.26485514190437
  C   2.85941696822560     -0.57811777611518     -1.73763346977777
  C   1.77652354432534     -0.88226543099403     -0.91632105805152
  H   -2.65427840446037      0.13235912662989     -2.02995944876630
  H   -1.94702904167876     -1.33834280610946     -2.71486400276403
  H   -0.89451742432865     -0.14323390700784     -1.93471881739509
  H   -3.03661744359780     -1.90670323469811     -0.55173953567375
  H   -1.29445732347043     -2.15805507600636     -0.44384941963445
  H   -2.16403022426838     -1.21595678448402      1.55915284142085
  H   -4.18231125120293     -0.01677701917921      0.67264670513066
  H   -3.88467766298779      2.44503238853912      0.45467684014431
  H   -1.58296778923729      3.38300793503422      0.38102899896239
  H   0.42119801902958      1.97356162945570      0.65548155880151
  H   0.21278746313475     -1.75887932238041      1.04339180533692
  H   -0.18900893254520     -0.89228911537563      3.30971570591808
  H   1.55297668058284     -1.17409111908977      3.05090420909341
  H   0.89710918019127      0.48557198370894      3.02701433692279
  H   2.71450863142883      0.83542113162432      1.87366004795578
  H   4.62004231609210      1.38565751854162      0.41095615601421
  H   4.73247282306674      0.48419908140788     -1.90326512795522
  H   2.91365189890540     -0.99427536519110     -2.74438192569652
  H   0.99228109375339     -1.54988726772165     -1.28441344826602
