 xtb: 6.7.1 (edcfbbe)
          09152514213D

 35 36  0     0  0            999 V2000
   -2.8643    0.4076   -1.4234 C   0  0  0  0  0  0  0  0  0  0  0  0
   -2.6446   -0.7155   -0.4199 C   0  0  0  0  0  0  0  0  0  0  0  0
   -1.1529   -0.9837   -0.0366 C   0  0  0  0  0  0  0  0  0  0  0  0
   -1.1599   -2.2660    0.7319 C   0  0  0  0  0  0  0  0  0  0  0  0
   -1.1451   -2.2781    2.0857 C   0  0  0  0  0  0  0  0  0  0  0  0
   -0.9525   -1.0890    2.8082 C   0  0  0  0  0  0  0  0  0  0  0  0
   -0.5836    0.0773    2.1265 C   0  0  0  0  0  0  0  0  0  0  0  0
   -0.5649    0.1422    0.7639 C   0  0  0  0  0  0  0  0  0  0  0  0
    0.0954    1.2479   -0.0140 C   0  0  0  0  0  0  0  0  0  0  0  0
    0.5541    2.4397    0.8303 C   0  0  0  0  0  0  0  0  0  0  0  0
    1.2908    0.6784   -0.7534 C   0  0  0  0  0  0  0  0  0  0  0  0
    1.4996    0.9704   -2.0942 C   0  0  0  0  0  0  0  0  0  0  0  0
    2.6020    0.4669   -2.7629 C   0  0  0  0  0  0  0  0  0  0  0  0
    3.5089   -0.3382   -2.0965 C   0  0  0  0  0  0  0  0  0  0  0  0
    3.3080   -0.6353   -0.7588 C   0  0  0  0  0  0  0  0  0  0  0  0
    2.2070   -0.1299   -0.0920 C   0  0  0  0  0  0  0  0  0  0  0  0
   -2.7026    1.3818   -0.9696 H   0  0  0  0  0  0  0  0  0  0  0  0
   -3.8903    0.3776   -1.7862 H   0  0  0  0  0  0  0  0  0  0  0  0
   -2.1994    0.2979   -2.2781 H   0  0  0  0  0  0  0  0  0  0  0  0
   -3.0366   -1.6443   -0.8413 H   0  0  0  0  0  0  0  0  0  0  0  0
   -3.1973   -0.5069    0.4978 H   0  0  0  0  0  0  0  0  0  0  0  0
   -0.5995   -1.1041   -0.9768 H   0  0  0  0  0  0  0  0  0  0  0  0
   -1.2787   -3.1769    0.1647 H   0  0  0  0  0  0  0  0  0  0  0  0
   -1.2422   -3.2103    2.6244 H   0  0  0  0  0  0  0  0  0  0  0  0
   -0.9789   -1.0981    3.8864 H   0  0  0  0  0  0  0  0  0  0  0  0
   -0.2525    0.9197    2.7156 H   0  0  0  0  0  0  0  0  0  0  0  0
   -0.6041    1.6239   -0.7676 H   0  0  0  0  0  0  0  0  0  0  0  0
   -0.2849    2.8768    1.3672 H   0  0  0  0  0  0  0  0  0  0  0  0
    1.3173    2.1392    1.5438 H   0  0  0  0  0  0  0  0  0  0  0  0
    0.9816    3.2004    0.1799 H   0  0  0  0  0  0  0  0  0  0  0  0
    0.7935    1.5974   -2.6215 H   0  0  0  0  0  0  0  0  0  0  0  0
    2.7506    0.7018   -3.8070 H   0  0  0  0  0  0  0  0  0  0  0  0
    4.3679   -0.7345   -2.6179 H   0  0  0  0  0  0  0  0  0  0  0  0
    4.0115   -1.2650   -0.2337 H   0  0  0  0  0  0  0  0  0  0  0  0
    2.0468   -0.3711    0.9490 H   0  0  0  0  0  0  0  0  0  0  0  0
  1  2  1  0  0  0  0
  2  3  1  0  0  0  0
  3  4  1  0  0  0  0
  4  5  2  0  0  0  0
  5  6  4  0  0  0  0
  6  7  4  0  0  0  0
  3  8  1  0  0  0  0
  7  8  2  0  0  0  0
  8  9  1  0  0  0  0
  9 10  1  0  0  0  0
  9 11  1  0  0  0  0
 11 12  4  0  0  0  0
 12 13  4  0  0  0  0
 13 14  4  0  0  0  0
 14 15  4  0  0  0  0
 11 16  4  0  0  0  0
 15 16  4  0  0  0  0
  1 17  1  0  0  0  0
  1 18  1  0  0  0  0
  1 19  1  0  0  0  0
  2 20  1  0  0  0  0
  2 21  1  0  0  0  0
  3 22  1  0  0  0  0
  4 23  1  0  0  0  0
  5 24  1  0  0  0  0
  6 25  1  0  0  0  0
  7 26  1  0  0  0  0
  9 27  1  0  0  0  0
 10 28  1  0  0  0  0
 10 29  1  0  0  0  0
 10 30  1  0  0  0  0
 12 31  1  0  0  0  0
 13 32  1  0  0  0  0
 14 33  1  0  0  0  0
 15 34  1  0  0  0  0
 16 35  1  0  0  0  0
M  END
