35
44.4624575012359
C 2.2264 -2.1137 -0.8762
C 2.5700 -0.6523 -1.1200
C 2.1503 0.3253 0.0039
C 2.9729 1.6003 -0.1956
C 2.4451 2.7475 -0.6472
C 1.0358 2.7764 -0.9358
C 0.1385 1.7768 -0.4114
C 0.6327 0.6115 0.0633
C -0.2513 -0.4064 0.7892
C -0.2038 -0.1355 2.3024
C -1.6656 -0.5221 0.2140
C -2.8045 -0.0303 0.8716
C -4.0739 -0.1561 0.2996
C -4.2266 -0.7706 -0.9402
C -3.1097 -1.2573 -1.6123
C -1.8415 -1.1326 -1.0413
H 2.5147 -2.4285 0.1312
H 1.1623 -2.3086 -1.0205
H 2.7630 -2.7455 -1.5922
H 3.6600 -0.6034 -1.2499
H 2.1346 -0.3402 -2.0783
H 2.4587 -0.0823 0.9751
H 4.0361 1.5476 0.0215
H 3.0408 3.6398 -0.8001
H 0.6163 3.6525 -1.4180
H -0.9152 2.0316 -0.3611
H 0.1824 -1.4041 0.6681
H 0.8200 -0.2129 2.6850
H -0.5689 0.8676 2.5511
H -0.8106 -0.8641 2.8519
H -2.7267 0.4651 1.8355
H -4.9441 0.2302 0.8241
H -5.2139 -0.8657 -1.3836
H -3.2224 -1.7311 -2.5838
H -0.9819 -1.5088 -1.5909
