35
Coordinates from ORCA-job orca_opt
  C   -2.64948771346465     -1.70326749361379     -0.82488744163785
  C   -1.52157330381630     -1.55310108403137      0.20660977618364
  C   -1.44054611541170     -0.15306465510572      0.74720896598300
  C   -2.11256372143371      0.19630956394214      1.90733653311590
  C   -2.09698834951293      1.50484840605164      2.43333217226958
  C   -1.41318731405110      2.51251279984343      1.78815765435062
  C   -0.71466432771086      2.21028517330966      0.59646965074141
  C   -0.70376368615664      0.87046761779055      0.04573869320065
  C   0.16432093486101      0.53488808857882     -1.15770055561384
  C   0.59651459143627      1.74962232381011     -1.98366429344346
  C   1.37382791083918     -0.26876898672337     -0.69193771405222
  C   2.05408058983089      0.03720601486921      0.49057596936436
  C   3.18769949886103     -0.68918608787938      0.85792787067807
  C   3.64934587448469     -1.72395326519464      0.04627097083448
  C   2.97554144869088     -2.03203213566223     -1.13585845566173
  C   1.84325400358745     -1.30808809608210     -1.50175509101836
  H   -2.51767957642164     -1.02433613182703     -1.68040408856321
  H   -2.66912855687652     -2.73036958513642     -1.21062596639534
  H   -3.62770584147689     -1.49069466272302     -0.37203650220008
  H   -1.70456207813580     -2.23631922312392      1.04742850606473
  H   -0.55713864602635     -1.84413939569755     -0.23080912017946
  H   -2.67047635242028     -0.57913692905891      2.43696371215069
  H   -2.64315280547746      1.71995076090105      3.35299088938962
  H   -1.39721541092072      3.53197351975712      2.17234596306769
  H   -0.15140164506978      2.98451641693950      0.07349204287053
  H   -1.58719859825856      1.75863683614080     -0.28827988003046
  H   -0.43531868767946     -0.12524770143207     -1.80179398571430
  H   -0.25955167672248      2.35179750893187     -2.32695965344163
  H   1.13464417076880      1.39797407206672     -2.87270045032601
  H   1.29313630596791      2.38938746532680     -1.42343827091461
  H   1.70811727256208      0.84659486856770      1.14020638669677
  H   3.71294550104485     -0.44436638954984      1.78184441573697
  H   4.53336107343851     -2.29335246829621      0.33547416179626
  H   3.33010560093132     -2.84207083339058     -1.77426742602228
  H   1.31620962973891     -1.55537631229897     -2.42715543928016
