35
41.457524185375675
C -2.6833 1.3489 -0.9559
C -1.5164 1.5034 0.0141
C -1.0937 0.2076 0.7388
C -2.2091 -0.2184 1.6922
C -2.8518 -1.3913 1.6014
C -2.4746 -2.3010 0.5539
C -1.3038 -2.0939 -0.2605
C -0.6289 -0.9246 -0.2028
C 0.6628 -0.7695 -1.0122
C 0.3997 -0.1475 -2.3916
C 1.8090 -0.1445 -0.2228
C 2.2878 1.1523 -0.4610
C 3.3363 1.6787 0.2988
C 3.9214 0.9190 1.3086
C 3.4584 -0.3686 1.5623
C 2.4115 -0.8954 0.8038
H -2.4605 0.6295 -1.7487
H -2.8993 2.3110 -1.4321
H -3.5928 1.0243 -0.4416
H -0.6618 1.9265 -0.5229
H -1.7918 2.2601 0.7610
H -0.2500 0.4578 1.3949
H -2.4803 0.4795 2.4795
H -3.6413 -1.6704 2.2898
H -3.0405 -3.2180 0.4307
H -0.9855 -2.9148 -0.8953
H 1.0240 -1.7834 -1.2488
H -0.3602 -0.7188 -2.9370
H 0.0527 0.8872 -2.3362
H 1.3124 -0.1549 -2.9988
H 1.8534 1.7780 -1.2357
H 3.6952 2.6855 0.1013
H 4.7356 1.3311 1.8984
H 3.9087 -0.9639 2.3521
H 2.0569 -1.9013 1.0221
