 xtb: 6.7.1 (edcfbbe)
          09152514213D

 35 36  0     0  0            999 V2000
    1.3459    1.7697    0.5273 C   0  0  0  0  0  0  0  0  0  0  0  0
    1.1275    1.1564   -0.8475 C   0  0  0  0  0  0  0  0  0  0  0  0
    1.4981   -0.3553   -0.8863 C   0  0  0  0  0  0  0  0  0  0  0  0
    2.9533   -0.5003   -0.5842 C   0  0  0  0  0  0  0  0  0  0  0  0
    3.4207   -1.1519    0.5062 C   0  0  0  0  0  0  0  0  0  0  0  0
    2.5392   -1.7948    1.3886 C   0  0  0  0  0  0  0  0  0  0  0  0
    1.1719   -1.8228    1.0943 C   0  0  0  0  0  0  0  0  0  0  0  0
    0.6331   -1.1885    0.0130 C   0  0  0  0  0  0  0  0  0  0  0  0
   -0.8376   -1.3580   -0.2994 C   0  0  0  0  0  0  0  0  0  0  0  0
   -1.0693   -1.7641   -1.7565 C   0  0  0  0  0  0  0  0  0  0  0  0
   -1.6321   -0.1382    0.1333 C   0  0  0  0  0  0  0  0  0  0  0  0
   -2.3714    0.6480   -0.7403 C   0  0  0  0  0  0  0  0  0  0  0  0
   -3.0737    1.7495   -0.2790 C   0  0  0  0  0  0  0  0  0  0  0  0
   -3.0529    2.0829    1.0626 C   0  0  0  0  0  0  0  0  0  0  0  0
   -2.3294    1.2994    1.9459 C   0  0  0  0  0  0  0  0  0  0  0  0
   -1.6299    0.2008    1.4837 C   0  0  0  0  0  0  0  0  0  0  0  0
    2.3868    1.6751    0.8282 H   0  0  0  0  0  0  0  0  0  0  0  0
    0.7272    1.2708    1.2684 H   0  0  0  0  0  0  0  0  0  0  0  0
    1.0803    2.8246    0.5135 H   0  0  0  0  0  0  0  0  0  0  0  0
    0.0850    1.2796   -1.1400 H   0  0  0  0  0  0  0  0  0  0  0  0
    1.7497    1.6758   -1.5804 H   0  0  0  0  0  0  0  0  0  0  0  0
    1.3322   -0.6666   -1.9299 H   0  0  0  0  0  0  0  0  0  0  0  0
    3.6308   -0.0110   -1.2694 H   0  0  0  0  0  0  0  0  0  0  0  0
    4.4839   -1.1967    0.6978 H   0  0  0  0  0  0  0  0  0  0  0  0
    2.9158   -2.3045    2.2608 H   0  0  0  0  0  0  0  0  0  0  0  0
    0.5257   -2.4041    1.7404 H   0  0  0  0  0  0  0  0  0  0  0  0
   -1.1962   -2.1876    0.3248 H   0  0  0  0  0  0  0  0  0  0  0  0
   -2.1167   -2.0134   -1.9128 H   0  0  0  0  0  0  0  0  0  0  0  0
   -0.4703   -2.6435   -1.9855 H   0  0  0  0  0  0  0  0  0  0  0  0
   -0.7935   -0.9722   -2.4477 H   0  0  0  0  0  0  0  0  0  0  0  0
   -2.4109    0.4131   -1.7926 H   0  0  0  0  0  0  0  0  0  0  0  0
   -3.6410    2.3492   -0.9766 H   0  0  0  0  0  0  0  0  0  0  0  0
   -3.6005    2.9426    1.4192 H   0  0  0  0  0  0  0  0  0  0  0  0
   -2.3116    1.5444    2.9979 H   0  0  0  0  0  0  0  0  0  0  0  0
   -1.0702   -0.4085    2.1793 H   0  0  0  0  0  0  0  0  0  0  0  0
  1  2  1  0  0  0  0
  2  3  1  0  0  0  0
  3  4  1  0  0  0  0
  4  5  2  0  0  0  0
  5  6  4  0  0  0  0
  6  7  4  0  0  0  0
  3  8  1  0  0  0  0
  7  8  2  0  0  0  0
  8  9  1  0  0  0  0
  9 10  1  0  0  0  0
  9 11  1  0  0  0  0
 11 12  4  0  0  0  0
 12 13  4  0  0  0  0
 13 14  4  0  0  0  0
 14 15  4  0  0  0  0
 11 16  4  0  0  0  0
 15 16  4  0  0  0  0
  1 17  1  0  0  0  0
  1 18  1  0  0  0  0
  1 19  1  0  0  0  0
  2 20  1  0  0  0  0
  2 21  1  0  0  0  0
  3 22  1  0  0  0  0
  4 23  1  0  0  0  0
  5 24  1  0  0  0  0
  6 25  1  0  0  0  0
  7 26  1  0  0  0  0
  9 27  1  0  0  0  0
 10 28  1  0  0  0  0
 10 29  1  0  0  0  0
 10 30  1  0  0  0  0
 12 31  1  0  0  0  0
 13 32  1  0  0  0  0
 14 33  1  0  0  0  0
 15 34  1  0  0  0  0
 16 35  1  0  0  0  0
M  END
