46

C 5.026626 0.098819 -1.225613
C 4.227059 0.432433 0.026306
O 2.860033 0.686749 -0.281907
C 2.049893 -0.382665 -0.397752
O 2.42244 -1.516891 -0.224388
C 0.701279 0.018114 -0.847548
C -0.470885 -0.33965 -0.371255
C -1.787677 -0.262182 -0.606598
C -2.61152 0.971051 -0.343335
C -2.066029 2.172173 -1.136179
C -0.690222 2.644399 -0.639907
C 0.469704 2.419191 -1.612644
C 0.676123 0.960868 -2.041379
C -2.493849 -1.802791 1.125658
C -3.981649 -1.704123 1.142348
C -1.746396 -2.834527 0.627175
C -0.380292 -2.623377 0.922396
C -0.242217 -1.442444 1.608629
C 0.963639 -0.934113 2.325563
C -1.613925 -1.015389 2.049278
H 4.939988 0.902641 -1.953286
H 6.073162 -0.035438 -0.96709
H 4.651977 -0.821259 -1.66787
H 4.283095 -0.39646 0.740219
H 4.591401 1.350134 0.493725
H -2.23555 -0.999429 -1.255218
H -2.619693 1.247482 0.713136
H -3.64295 0.786653 -0.648358
H -2.787489 2.987733 -1.042865
H -2.012738 1.909532 -2.193364
H -0.730903 3.715613 -0.428059
H -0.456907 2.141545 0.29934
H 0.311108 3.019318 -2.512206
H 1.383975 2.772699 -1.131099
H 1.612135 0.886547 -2.597176
H -0.139272 0.654364 -2.699008
H -4.384306 -2.254651 1.995227
H -4.307831 -0.670607 1.232342
H -4.40657 -2.133988 0.237983
H -2.119041 -3.635921 0.013267
H 0.432218 -3.227432 0.56343
H 1.153259 0.114459 2.096597
H 0.804866 -1.011986 3.402635
H 1.840233 -1.51848 2.064341
H -1.768524 -1.386585 3.068761
H -1.777817 0.058021 2.07574
