19 

C       12.2381696701049805       7.2929005622863770       6.3242802619934082         
C       12.6190004348754883       8.7131500244140625       6.7746496200561523         
C       12.8031301498413086       9.4244394302368164       5.4899501800537109         
C       12.3792495727539063       7.2921810150146484       4.7882709503173828         
C       13.5029497146606445       6.4606699943542480       4.2282009124755859         
H       12.9020595550537109       6.5398406982421875       6.7652502059936523         
H       11.2114200592041016       7.0476503372192383       6.6190390586853027         
H       11.8523292541503906       9.2298107147216797       7.3704109191894531         
H       13.5652294158935547       8.7771596908569336       7.3293399810791016         
H       15.1064500808715820       10.1403903961181641       5.5282802581787109         
H       13.6144886016845703       6.6327714920043945       3.1492412090301514         
H       13.2641897201538086       5.3990306854248047       4.3803300857543945         
H       11.4325714111328125       7.0867719650268555       4.2744393348693848         
H       14.4418687820434570       6.6960401535034180       4.7467312812805176         
H       13.6600599288940430       10.7753877639770508       5.5113410949707031         
H       12.5361928939819336       11.1467599868774414       4.3869609832763672         
O       12.6520404815673828       8.7202014923095703       4.4541110992431641         
O       14.2264480590820313       9.7576103210449219       5.6373815536499023         
O       12.4522809982299805       10.8781604766845703       5.3213000297546387         
