 xtb: 6.7.1 (edcfbbe)
          09152514523D

 35 36  0     0  0            999 V2000
   -3.7963   -0.7745    0.6563 C   0  0  0  0  0  0  0  0  0  0  0  0
   -2.3272   -1.2037    0.7537 C   0  0  0  0  0  0  0  0  0  0  0  0
   -1.4705   -0.3394   -0.1193 C   0  0  0  0  0  0  0  0  0  0  0  0
   -1.2273   -0.6625   -1.4208 C   0  0  0  0  0  0  0  0  0  0  0  0
   -0.5790    0.2188   -2.2930 C   0  0  0  0  0  0  0  0  0  0  0  0
   -0.2898    1.5218   -1.8613 C   0  0  0  0  0  0  0  0  0  0  0  0
   -0.4955    1.8918   -0.5732 C   0  0  0  0  0  0  0  0  0  0  0  0
   -0.8901    0.9065    0.4688 C   0  0  0  0  0  0  0  0  0  0  0  0
    0.3656    0.5118    1.3556 C   0  0  0  0  0  0  0  0  0  0  0  0
    0.8629    1.7009    2.1717 C   0  0  0  0  0  0  0  0  0  0  0  0
    1.4167   -0.1065    0.4786 C   0  0  0  0  0  0  0  0  0  0  0  0
    1.4430   -1.4882    0.3205 C   0  0  0  0  0  0  0  0  0  0  0  0
    2.3549   -2.0917   -0.5248 C   0  0  0  0  0  0  0  0  0  0  0  0
    3.2616   -1.3200   -1.2305 C   0  0  0  0  0  0  0  0  0  0  0  0
    3.2489    0.0553   -1.0784 C   0  0  0  0  0  0  0  0  0  0  0  0
    2.3335    0.6570   -0.2338 C   0  0  0  0  0  0  0  0  0  0  0  0
   -4.4209   -1.4111    1.2789 H   0  0  0  0  0  0  0  0  0  0  0  0
   -4.1402   -0.8457   -0.3727 H   0  0  0  0  0  0  0  0  0  0  0  0
   -3.9150    0.2552    0.9848 H   0  0  0  0  0  0  0  0  0  0  0  0
   -2.0115   -1.1331    1.7980 H   0  0  0  0  0  0  0  0  0  0  0  0
   -2.2438   -2.2472    0.4404 H   0  0  0  0  0  0  0  0  0  0  0  0
   -1.5839   -1.6084   -1.8065 H   0  0  0  0  0  0  0  0  0  0  0  0
   -0.3775   -0.0746   -3.3105 H   0  0  0  0  0  0  0  0  0  0  0  0
    0.0679    2.2448   -2.5812 H   0  0  0  0  0  0  0  0  0  0  0  0
   -0.3250    2.9099   -0.2572 H   0  0  0  0  0  0  0  0  0  0  0  0
   -1.6012    1.3600    1.1723 H   0  0  0  0  0  0  0  0  0  0  0  0
    0.0179   -0.2536    2.0579 H   0  0  0  0  0  0  0  0  0  0  0  0
    1.7370    1.4088    2.7512 H   0  0  0  0  0  0  0  0  0  0  0  0
    1.1382    2.5397    1.5395 H   0  0  0  0  0  0  0  0  0  0  0  0
    0.0883    2.0338    2.8608 H   0  0  0  0  0  0  0  0  0  0  0  0
    0.7370   -2.0986    0.8664 H   0  0  0  0  0  0  0  0  0  0  0  0
    2.3571   -3.1668   -0.6346 H   0  0  0  0  0  0  0  0  0  0  0  0
    3.9737   -1.7879   -1.8945 H   0  0  0  0  0  0  0  0  0  0  0  0
    3.9538    0.6655   -1.6250 H   0  0  0  0  0  0  0  0  0  0  0  0
    2.3365    1.7316   -0.1376 H   0  0  0  0  0  0  0  0  0  0  0  0
  1  2  1  0  0  0  0
  2  3  1  0  0  0  0
  3  4  2  0  0  0  0
  4  5  4  0  0  0  0
  5  6  4  0  0  0  0
  6  7  2  0  0  0  0
  3  8  1  0  0  0  0
  7  8  1  0  0  0  0
  8  9  1  0  0  0  0
  9 10  1  0  0  0  0
  9 11  1  0  0  0  0
 11 12  4  0  0  0  0
 12 13  4  0  0  0  0
 13 14  4  0  0  0  0
 14 15  4  0  0  0  0
 11 16  4  0  0  0  0
 15 16  4  0  0  0  0
  1 17  1  0  0  0  0
  1 18  1  0  0  0  0
  1 19  1  0  0  0  0
  2 20  1  0  0  0  0
  2 21  1  0  0  0  0
  4 22  1  0  0  0  0
  5 23  1  0  0  0  0
  6 24  1  0  0  0  0
  7 25  1  0  0  0  0
  8 26  1  0  0  0  0
  9 27  1  0  0  0  0
 10 28  1  0  0  0  0
 10 29  1  0  0  0  0
 10 30  1  0  0  0  0
 12 31  1  0  0  0  0
 13 32  1  0  0  0  0
 14 33  1  0  0  0  0
 15 34  1  0  0  0  0
 16 35  1  0  0  0  0
M  END
