35
48.64072286283907
C -3.0678 -1.5808 -1.1361
C -2.3753 -1.7356 0.2112
C -1.9257 -0.4206 0.8061
C -2.8164 0.4090 1.3858
C -2.3589 1.6167 2.0253
C -0.9653 1.8678 2.2814
C -0.0525 1.0587 1.7238
C -0.4104 -0.1220 0.8192
C 0.1776 0.0431 -0.6226
C -0.3609 1.2822 -1.3586
C 1.7033 -0.0603 -0.6295
C 2.2976 -1.3342 -0.6069
C 3.6862 -1.4788 -0.5993
C 4.5037 -0.3522 -0.6109
C 3.9324 0.9176 -0.6282
C 2.5428 1.0634 -0.6359
H -2.4070 -1.1287 -1.8813
H -3.3759 -2.5614 -1.5134
H -3.9645 -0.9575 -1.0546
H -3.0630 -2.2307 0.9089
H -1.5210 -2.4149 0.1071
H -3.8791 0.1902 1.4100
H -3.0948 2.3102 2.4176
H -0.6844 2.6956 2.9225
H 1.0018 1.2293 1.9238
H 0.0609 -0.9981 1.2890
H -0.1634 -0.8106 -1.2247
H 0.0631 1.3478 -2.3672
H -0.1245 2.2158 -0.8385
H -1.4492 1.2336 -1.4664
H 1.6774 -2.2282 -0.5957
H 4.1286 -2.4713 -0.5839
H 5.5846 -0.4631 -0.6049
H 4.5688 1.7987 -0.6339
H 2.1312 2.0693 -0.6390
