35
52.321312948049865
C 1.7797 2.3277 -0.2819
C 1.2981 1.2077 -1.1963
C 1.5883 -0.1857 -0.6818
C 2.8526 -0.5584 -0.3913
C 3.1305 -1.9329 -0.0584
C 2.2111 -2.9848 -0.4019
C 0.9441 -2.6493 -0.6868
C 0.4215 -1.2077 -0.6338
C -0.5096 -0.9975 0.6180
C -1.4455 -2.1878 0.9073
C -1.3781 0.2562 0.5405
C -2.3207 0.4373 -0.4846
C -3.1138 1.5856 -0.5280
C -2.9816 2.5634 0.4550
C -2.0600 2.3921 1.4851
C -1.2666 1.2443 1.5307
H 1.4312 3.2947 -0.6590
H 1.4035 2.2054 0.7379
H 2.8728 2.3675 -0.2374
H 1.7690 1.3210 -2.1813
H 0.2282 1.3379 -1.3762
H 3.6925 0.1249 -0.4584
H 4.1245 -2.1970 0.2855
H 2.5611 -4.0101 -0.4367
H 0.2386 -3.4271 -0.9652
H -0.1570 -1.0764 -1.5583
H 0.1438 -0.9035 1.4978
H -2.0513 -2.4493 0.0326
H -2.1321 -1.9594 1.7314
H -0.8801 -3.0759 1.2079
H -2.4458 -0.3149 -1.2598
H -3.8369 1.7153 -1.3290
H -3.5995 3.4566 0.4209
H -1.9584 3.1517 2.2556
H -0.5538 1.1287 2.3444
