35
53.320784147290034
C -2.6585 2.0849 -0.6252
C -2.7117 0.8628 0.2836
C -1.7584 -0.2511 -0.0922
C -1.8071 -0.8103 -1.3198
C -1.0319 -1.9948 -1.5940
C -0.5084 -2.8165 -0.5341
C -0.4400 -2.2931 0.6991
C -0.8735 -0.8577 1.0206
C 0.3864 -0.0337 1.4701
C 0.0568 1.3439 2.0581
C 1.5016 0.0750 0.4326
C 1.3851 0.8842 -0.7062
C 2.4232 0.9647 -1.6375
C 3.5949 0.2383 -1.4434
C 3.7287 -0.5707 -0.3185
C 2.6906 -0.6519 0.6121
H -3.3434 2.8547 -0.2545
H -1.6547 2.5178 -0.6574
H -2.9597 1.8427 -1.6491
H -3.7328 0.4596 0.2799
H -2.5359 1.1859 1.3141
H -2.4604 -0.4446 -2.1045
H -0.9535 -2.3461 -2.6166
H -0.1763 -3.8240 -0.7550
H -0.0368 -2.8882 1.5130
H -1.5287 -0.9534 1.8997
H 0.8082 -0.5917 2.3211
H 0.9519 1.7943 2.5036
H -0.6940 1.2575 2.8504
H -0.3121 2.0479 1.3081
H 0.4803 1.4560 -0.8877
H 2.3125 1.5934 -2.5168
H 4.4007 0.3002 -2.1693
H 4.6402 -1.1419 -0.1650
H 2.8165 -1.2943 1.4805
