 xtb: 6.7.1 (edcfbbe)
          09152514213D

 35 36  0     0  0            999 V2000
    2.7306    1.0126   -0.5505 C   0  0  0  0  0  0  0  0  0  0  0  0
    1.5260    1.1739    0.3660 C   0  0  0  0  0  0  0  0  0  0  0  0
    0.9402   -0.1967    0.8156 C   0  0  0  0  0  0  0  0  0  0  0  0
    1.9640   -0.9166    1.6284 C   0  0  0  0  0  0  0  0  0  0  0  0
    2.5285   -2.0833    1.2376 C   0  0  0  0  0  0  0  0  0  0  0  0
    2.1170   -2.7207    0.0566 C   0  0  0  0  0  0  0  0  0  0  0  0
    1.0562   -2.1828   -0.6787 C   0  0  0  0  0  0  0  0  0  0  0  0
    0.4423   -1.0125   -0.3398 C   0  0  0  0  0  0  0  0  0  0  0  0
   -0.7658   -0.5558   -1.1318 C   0  0  0  0  0  0  0  0  0  0  0  0
   -0.3495    0.1723   -2.4175 C   0  0  0  0  0  0  0  0  0  0  0  0
   -1.7383    0.2151   -0.2702 C   0  0  0  0  0  0  0  0  0  0  0  0
   -2.0208    1.5633   -0.4360 C   0  0  0  0  0  0  0  0  0  0  0  0
   -2.9190    2.2050    0.4019 C   0  0  0  0  0  0  0  0  0  0  0  0
   -3.5486    1.5109    1.4182 C   0  0  0  0  0  0  0  0  0  0  0  0
   -3.2781    0.1632    1.5916 C   0  0  0  0  0  0  0  0  0  0  0  0
   -2.3838   -0.4747    0.7542 C   0  0  0  0  0  0  0  0  0  0  0  0
    3.5334    0.4930   -0.0326 H   0  0  0  0  0  0  0  0  0  0  0  0
    2.4693    0.4332   -1.4324 H   0  0  0  0  0  0  0  0  0  0  0  0
    3.0973    1.9866   -0.8689 H   0  0  0  0  0  0  0  0  0  0  0  0
    1.8220    1.7250    1.2615 H   0  0  0  0  0  0  0  0  0  0  0  0
    0.7430    1.7474   -0.1300 H   0  0  0  0  0  0  0  0  0  0  0  0
    0.0868    0.0585    1.4651 H   0  0  0  0  0  0  0  0  0  0  0  0
    2.2739   -0.4295    2.5418 H   0  0  0  0  0  0  0  0  0  0  0  0
    3.2948   -2.5452    1.8448 H   0  0  0  0  0  0  0  0  0  0  0  0
    2.5794   -3.6435   -0.2547 H   0  0  0  0  0  0  0  0  0  0  0  0
    0.6919   -2.7376   -1.5346 H   0  0  0  0  0  0  0  0  0  0  0  0
   -1.2896   -1.4673   -1.4530 H   0  0  0  0  0  0  0  0  0  0  0  0
    0.2097    1.0787   -2.2079 H   0  0  0  0  0  0  0  0  0  0  0  0
    0.2821   -0.4827   -3.0140 H   0  0  0  0  0  0  0  0  0  0  0  0
   -1.2301    0.4282   -3.0037 H   0  0  0  0  0  0  0  0  0  0  0  0
   -1.5504    2.1299   -1.2248 H   0  0  0  0  0  0  0  0  0  0  0  0
   -3.1267    3.2555    0.2563 H   0  0  0  0  0  0  0  0  0  0  0  0
   -4.2479    2.0136    2.0698 H   0  0  0  0  0  0  0  0  0  0  0  0
   -3.7670   -0.3911    2.3797 H   0  0  0  0  0  0  0  0  0  0  0  0
   -2.1730   -1.5265    0.8920 H   0  0  0  0  0  0  0  0  0  0  0  0
  1  2  1  0  0  0  0
  2  3  1  0  0  0  0
  3  4  1  0  0  0  0
  4  5  2  0  0  0  0
  5  6  4  0  0  0  0
  6  7  4  0  0  0  0
  3  8  1  0  0  0  0
  7  8  2  0  0  0  0
  8  9  1  0  0  0  0
  9 10  1  0  0  0  0
  9 11  1  0  0  0  0
 11 12  4  0  0  0  0
 12 13  4  0  0  0  0
 13 14  4  0  0  0  0
 14 15  4  0  0  0  0
 11 16  4  0  0  0  0
 15 16  4  0  0  0  0
  1 17  1  0  0  0  0
  1 18  1  0  0  0  0
  1 19  1  0  0  0  0
  2 20  1  0  0  0  0
  2 21  1  0  0  0  0
  3 22  1  0  0  0  0
  4 23  1  0  0  0  0
  5 24  1  0  0  0  0
  6 25  1  0  0  0  0
  7 26  1  0  0  0  0
  9 27  1  0  0  0  0
 10 28  1  0  0  0  0
 10 29  1  0  0  0  0
 10 30  1  0  0  0  0
 12 31  1  0  0  0  0
 13 32  1  0  0  0  0
 14 33  1  0  0  0  0
 15 34  1  0  0  0  0
 16 35  1  0  0  0  0
M  END
