35
44.46245746675872
C -2.4428 1.7046 1.0484
C -2.6629 0.2044 0.9301
C -2.1025 -0.4501 -0.3555
C -2.8139 -1.7966 -0.5068
C -2.2058 -2.9726 -0.2929
C -0.8152 -2.9581 0.0762
C 0.0112 -1.7974 -0.1457
C -0.5640 -0.5957 -0.3756
C 0.2572 0.6284 -0.7898
C 0.3071 0.7132 -2.3247
C 1.6259 0.7171 -0.1092
C 2.8351 0.4814 -0.7828
C 4.0588 0.5693 -0.1127
C 4.0953 0.8893 1.2417
C 2.9078 1.1183 1.9297
C 1.6850 1.0313 1.2609
H -2.7101 2.2212 0.1216
H -1.4091 1.9427 1.3048
H -3.0685 2.1093 1.8512
H -2.2473 -0.2869 1.8197
H -3.7489 0.0420 0.9715
H -2.3999 0.1465 -1.2273
H -3.8658 -1.7778 -0.7777
H -2.7243 -3.9196 -0.3873
H -0.3411 -3.8868 0.3740
H 1.0850 -1.9508 -0.1811
H -0.2711 1.5339 -0.4750
H 0.7737 -0.1733 -2.7694
H 0.8705 1.5943 -2.6521
H -0.7000 0.7974 -2.7481
H 2.8491 0.2187 -1.8370
H 4.9848 0.3841 -0.6511
H 5.0474 0.9554 1.7608
H 2.9302 1.3611 2.9887
H 0.7693 1.2018 1.8222
