35
47.709989824367234
C -2.7187 -2.2008 0.1645
C -2.7170 -0.8387 0.8445
C -2.1497 0.2649 -0.0232
C -2.9276 1.3047 -0.3873
C -2.3980 2.3389 -1.2395
C -1.1144 2.2273 -1.8780
C -0.3105 1.2111 -1.5336
C -0.6787 0.1540 -0.4899
C 0.3305 0.1393 0.7089
C 0.3273 1.4492 1.5155
C 1.7252 -0.3152 0.2762
C 2.7711 0.5818 0.0132
C 4.0251 0.1181 -0.3928
C 4.2520 -1.2474 -0.5446
C 3.2245 -2.1519 -0.2925
C 1.9711 -1.6899 0.1131
H -3.2363 -2.1626 -0.7998
H -3.2321 -2.9339 0.7952
H -1.7014 -2.5674 -0.0039
H -2.1624 -0.8970 1.7870
H -3.7511 -0.6020 1.1265
H -3.9623 1.3934 -0.0718
H -3.0238 3.1936 -1.4725
H -0.8286 2.9577 -2.6263
H 0.6534 1.1085 -2.0250
H -0.5974 -0.8038 -1.0226
H -0.0018 -0.6282 1.4218
H 1.0414 1.3957 2.3453
H 0.5920 2.3181 0.9049
H -0.6597 1.6394 1.9497
H 2.6261 1.6544 0.1112
H 4.8251 0.8265 -0.5923
H 5.2280 -1.6055 -0.8605
H 3.3974 -3.2182 -0.4117
H 1.1816 -2.4142 0.3032
