 xtb: 6.7.1 (edcfbbe)
          09152514213D

 35 36  0     0  0            999 V2000
    3.1112    0.7530   -1.4883 C   0  0  0  0  0  0  0  0  0  0  0  0
    2.4301   -0.6081   -1.4919 C   0  0  0  0  0  0  0  0  0  0  0  0
    1.6631   -0.8802   -0.1653 C   0  0  0  0  0  0  0  0  0  0  0  0
    2.6239   -0.8774    0.9765 C   0  0  0  0  0  0  0  0  0  0  0  0
    2.5676    0.0318    1.9779 C   0  0  0  0  0  0  0  0  0  0  0  0
    1.5464    0.9945    2.0239 C   0  0  0  0  0  0  0  0  0  0  0  0
    0.5352    0.9739    1.0588 C   0  0  0  0  0  0  0  0  0  0  0  0
    0.5349    0.0879    0.0226 C   0  0  0  0  0  0  0  0  0  0  0  0
   -0.6246    0.0214   -0.9445 C   0  0  0  0  0  0  0  0  0  0  0  0
   -0.7211    1.2828   -1.8080 C   0  0  0  0  0  0  0  0  0  0  0  0
   -1.8757   -0.2598   -0.1387 C   0  0  0  0  0  0  0  0  0  0  0  0
   -2.7746    0.7292    0.2374 C   0  0  0  0  0  0  0  0  0  0  0  0
   -3.8795    0.4215    1.0135 C   0  0  0  0  0  0  0  0  0  0  0  0
   -4.1031   -0.8784    1.4292 C   0  0  0  0  0  0  0  0  0  0  0  0
   -3.2126   -1.8731    1.0615 C   0  0  0  0  0  0  0  0  0  0  0  0
   -2.1114   -1.5635    0.2860 C   0  0  0  0  0  0  0  0  0  0  0  0
    2.3821    1.5442   -1.3315 H   0  0  0  0  0  0  0  0  0  0  0  0
    3.6163    0.9260   -2.4365 H   0  0  0  0  0  0  0  0  0  0  0  0
    3.8459    0.8078   -0.6886 H   0  0  0  0  0  0  0  0  0  0  0  0
    1.7325   -0.6695   -2.3291 H   0  0  0  0  0  0  0  0  0  0  0  0
    3.1797   -1.3916   -1.6234 H   0  0  0  0  0  0  0  0  0  0  0  0
    1.2434   -1.8956   -0.2734 H   0  0  0  0  0  0  0  0  0  0  0  0
    3.4032   -1.6254    0.9484 H   0  0  0  0  0  0  0  0  0  0  0  0
    3.3071    0.0146    2.7665 H   0  0  0  0  0  0  0  0  0  0  0  0
    1.5183    1.7189    2.8218 H   0  0  0  0  0  0  0  0  0  0  0  0
   -0.2873    1.6688    1.1605 H   0  0  0  0  0  0  0  0  0  0  0  0
   -0.4714   -0.8322   -1.6146 H   0  0  0  0  0  0  0  0  0  0  0  0
   -1.6346    1.2653   -2.3994 H   0  0  0  0  0  0  0  0  0  0  0  0
    0.1277    1.3317   -2.4864 H   0  0  0  0  0  0  0  0  0  0  0  0
   -0.7124    2.1816   -1.1972 H   0  0  0  0  0  0  0  0  0  0  0  0
   -2.6258    1.7507   -0.0767 H   0  0  0  0  0  0  0  0  0  0  0  0
   -4.5699    1.2043    1.2935 H   0  0  0  0  0  0  0  0  0  0  0  0
   -4.9661   -1.1166    2.0332 H   0  0  0  0  0  0  0  0  0  0  0  0
   -3.3780   -2.8927    1.3783 H   0  0  0  0  0  0  0  0  0  0  0  0
   -1.4207   -2.3461    0.0041 H   0  0  0  0  0  0  0  0  0  0  0  0
  1  2  1  0  0  0  0
  2  3  1  0  0  0  0
  3  4  1  0  0  0  0
  4  5  2  0  0  0  0
  5  6  4  0  0  0  0
  6  7  4  0  0  0  0
  3  8  1  0  0  0  0
  7  8  2  0  0  0  0
  8  9  1  0  0  0  0
  9 10  1  0  0  0  0
  9 11  1  0  0  0  0
 11 12  4  0  0  0  0
 12 13  4  0  0  0  0
 13 14  4  0  0  0  0
 14 15  4  0  0  0  0
 11 16  4  0  0  0  0
 15 16  4  0  0  0  0
  1 17  1  0  0  0  0
  1 18  1  0  0  0  0
  1 19  1  0  0  0  0
  2 20  1  0  0  0  0
  2 21  1  0  0  0  0
  3 22  1  0  0  0  0
  4 23  1  0  0  0  0
  5 24  1  0  0  0  0
  6 25  1  0  0  0  0
  7 26  1  0  0  0  0
  9 27  1  0  0  0  0
 10 28  1  0  0  0  0
 10 29  1  0  0  0  0
 10 30  1  0  0  0  0
 12 31  1  0  0  0  0
 13 32  1  0  0  0  0
 14 33  1  0  0  0  0
 15 34  1  0  0  0  0
 16 35  1  0  0  0  0
M  END
